@<TRIPOS>MOLECULE
Pre
28   27    1
SMALL
USER_CHARGES


@<TRIPOS>ATOM
      1 C1         66.7231   94.5005   74.6232 C.3       1 Pre        0.0000 
      2 C2         68.0305   93.7737   74.9861 C.3       1 Pre        0.0000 
      3 C3         67.8067   92.4705   75.7923 C.3       1 Pre        0.0000 
      4 C4         66.8411   91.4200   75.1808 C.3       1 Pre        0.0000 
      5 C5         67.2596   90.9481   73.7627 C.3       1 Pre        0.0000 
      6 C6         68.9744   94.7191   75.7474 C.3       1 Pre        0.0000 
      7 C7         66.6013   90.2399   76.1549 C.3       1 Pre        0.0000 
      8 N8         67.8417   89.5599   76.5754 N.4       1 Pre        0.0000 
      9 C9         66.1595   90.1701   73.0302 C.2       1 Pre        0.0000 
     10 O10        66.4756   89.0698   72.5308 O.co2     1 Pre        0.0000 
     11 O11        65.0196   90.6823   72.9388 O.co2     1 Pre        0.0000 
     12 H12        66.1326   94.7308   75.5094 H         1 Pre        0.0000 
     13 H13        66.1039   93.9031   73.9534 H         1 Pre        0.0000 
     14 H14        66.9283   95.4405   74.1096 H         1 Pre        0.0000 
     15 H15        68.5378   93.5202   74.0551 H         1 Pre        0.0000 
     16 H16        68.7813   92.0066   75.9538 H         1 Pre        0.0000 
     17 H17        67.4400   92.7378   76.7846 H         1 Pre        0.0000 
     18 H18        65.8720   91.9107   75.0831 H         1 Pre        0.0000 
     19 H19        67.4810   91.8051   73.1315 H         1 Pre        0.0000 
     20 H20        68.1746   90.3561   73.8066 H         1 Pre        0.0000 
     21 H21        68.5387   95.0400   76.6942 H         1 Pre        0.0000 
     22 H22        69.1925   95.6142   75.1634 H         1 Pre        0.0000 
     23 H23        69.9259   94.2331   75.9670 H         1 Pre        0.0000 
     24 H24        66.0976   90.5944   77.0552 H         1 Pre        0.0000 
     25 H25        65.9337   89.5001   75.7123 H         1 Pre        0.0000 
     26 H26        67.6012   88.6793   77.0134 H         1 Pre        0.0000 
     27 H27        68.3477   90.1119   77.2675 H         1 Pre        0.0000 
     28 H28        68.4894   89.3797   75.8053 H         1 Pre        0.0000 
@<TRIPOS>BOND
     1    1    2 1    
     2    1   12 1    
     3    1   13 1    
     4    1   14 1    
     5    2    3 1    
     6    2    6 1    
     7    2   15 1    
     8    3    4 1    
     9    3   16 1    
    10    3   17 1    
    11    4    5 1    
    12    4    7 1    
    13    4   18 1    
    14    5    9 1    
    15    5   19 1    
    16    5   20 1    
    17    6   21 1    
    18    6   22 1    
    19    6   23 1    
    20    7    8 1    
    21    7   24 1    
    22    7   25 1    
    23    8   26 1    
    24    8   27 1    
    25    8   28 1    
    26    9   10 2    
    27    9   11 1    
@<TRIPOS>SUBSTRUCTURE
     1 Pre         1 GROUP             0       ****    0 ROOT    
